*Heading
SI(mm, MPa, N, s, mJ) Units
**step1: define node
*Part, name=concrete
*Node
1,0,0,0
73,360,0,0
601,0,30,0
673,360,30,0
701,0,30,0
773,360,30,0
1301,0,60,0
1373,360,60,0
1401,0,60,0
1473,360,60,0
2001,0,90,0
2073,360,90,0
30001,0,0,15
30073,360,0,15
30601,0,30,15
30673,360,30,15
30701,0,30,15
30773,360,30,15
31301,0,60,15
31373,360,60,15
** ... 124 like lines cut
*NGEN,nset=A111
1,73,1
*NGEN,nset=A112
601,673,1
*NGEN,nset=B111
30001,30073,1
*NGEN,nset=B112
30601,30673,1
*NFILL, NSET=A11
A111, A112, 6, 100
*NFILL, NSET=B11
B111, B112, 6, 100
*NFILL, NSET=nset-concrete11
A11, B11, 3, 10000
*NGEN,nset=A121
701,773,1
*NGEN,nset=A122
1301,1373,1
*NGEN,nset=B121
30701,30773,1
*NGEN,nset=B122
31301,31373,1
*NFILL, NSET=A12
A121, A122, 6, 100
*NFILL, NSET=B12
B121, B122, 6, 100
*NFILL, NSET=nset-concrete12
A12, B12, 3, 10000
*NGEN,nset=A131
1401,1473,1
*NGEN,nset=A132
2001,2073,1
*NGEN,nset=B131
31401,31473,1
*NGEN,nset=B132
32001,32073,1
*NFILL, NSET=A13
A131, A132, 6, 100
*NFILL, NSET=B13
B131, B132, 6, 100
*NFILL, NSET=nset-concrete13
A13, B13, 3, 10000
*NGEN,nset=A211
40001,40073,1
*NGEN,nset=A212
40601,40673,1
*NGEN,nset=B211
70001,70073,1
*NGEN,nset=B212
70601,70673,1
*NFILL, NSET=A21
A211, A212, 6, 100
*NFILL, NSET=B21
B211, B212, 6, 100
*NFILL, NSET=nset-concrete21
A21, B21, 3, 10000
*NGEN,nset=A221
40701,40773,1
*NGEN,nset=A222
41301,41373,1
*NGEN,nset=B221
70701,70773,1
*NGEN,nset=B222
71301,71373,1
*NFILL, NSET=A22
A221, A222, 6, 100
*NFILL, NSET=B22
B221, B222, 6, 100
*NFILL, NSET=nset-concrete22
A22, B22, 3, 10000
*NGEN,nset=A231
41401,41473,1
*NGEN,nset=A232
42001,42073,1
*NGEN,nset=B231
71401,71473,1
*NGEN,nset=B232
72001,72073,1
*NFILL, NSET=A23
A231, A232, 6, 100
*NFILL, NSET=B23
B231, B232, 6, 100
*NFILL, NSET=nset-concrete23
A23, B23, 3, 10000
*NGEN,nset=A311
80001,80073,1
*NGEN,nset=A312
80601,80673,1
*NGEN,nset=B311
110001,110073,1
*NGEN,nset=B312
110601,110673,1
*NFILL, NSET=A31
A311, A312, 6, 100
*NFILL, NSET=B31
B311, B312, 6, 100
*NFILL, NSET=nset-concrete31
A31, B31, 3, 10000
*NGEN,nset=A321
80701,80773,1
*NGEN,nset=A322
81301,81373,1
*NGEN,nset=B321
110701,110773,1
*NGEN,nset=B322
111301,111373,1
*NFILL, NSET=A32
A321, A322, 6, 100
*NFILL, NSET=B32
B321, B322, 6, 100
*NFILL, NSET=nset-concrete32
A32, B32, 3, 10000
*NGEN,nset=A331
81401,81473,1
*NGEN,nset=A332
82001,82073,1
*NGEN,nset=B331
111401,111473,1
*NGEN,nset=B332
112001,112073,1
*NFILL, NSET=A33
A331, A332, 6, 100
*NFILL, NSET=B33
B331, B332, 6, 100
*NFILL, NSET=nset-concrete33
A33, B33, 3, 10000
*NGEN,nset=A411
120001,120073,1
*NGEN,nset=A412
120601,120673,1
*NGEN,nset=B411
150001,150073,1
*NGEN,nset=B412
150601,150673,1
*NFILL, NSET=A41
A411, A412, 6, 100
*NFILL, NSET=B41
B411, B412, 6, 100
*NFILL, NSET=nset-concrete41
A41, B41, 3, 10000
*NGEN,nset=A421
120701,120773,1
*NGEN,nset=A422
121301,121373,1
*NGEN,nset=B421
150701,150773,1
*NGEN,nset=B422
151301,151373,1
*NFILL, NSET=A42
A421, A422, 6, 100
*NFILL, NSET=B42
B421, B422, 6, 100
*NFILL, NSET=nset-concrete42
A42, B42, 3, 10000
*NGEN,nset=A431
121401,121473,1
*NGEN,nset=A432
122001,122073,1
*NGEN,nset=B431
151401,151473,1
*NGEN,nset=B432
152001,152073,1
*NFILL, NSET=A43
A431, A432, 6, 100
*NFILL, NSET=B43
B431, B432, 6, 100
*NFILL, NSET=nset-concrete43
A43, B43, 3, 10000
*NGEN,nset=A511
160001,160073,1
*NGEN,nset=A512
160601,160673,1
*NGEN,nset=B511
190001,190073,1
*NGEN,nset=B512
190601,190673,1
*NFILL, NSET=A51
A511, A512, 6, 100
*NFILL, NSET=B51
B511, B512, 6, 100
*NFILL, NSET=nset-concrete51
A51, B51, 3, 10000
*NGEN,nset=A521
160701,160773,1
*NGEN,nset=A522
161301,161373,1
*NGEN,nset=B521
190701,190773,1
*NGEN,nset=B522
191301,191373,1
*NFILL, NSET=A52
A521, A522, 6, 100
*NFILL, NSET=B52
B521, B522, 6, 100
*NFILL, NSET=nset-concrete52
A52, B52, 3, 10000
*NGEN,nset=A531
161401,161473,1
*NGEN,nset=A532
162001,162073,1
*NGEN,nset=B531
191401,191473,1
*NGEN,nset=B532
192001,192073,1
*NFILL, NSET=A53
A531, A532, 6, 100
*NFILL, NSET=B53
B531, B532, 6, 100
*NFILL, NSET=nset-concrete53
A53, B53, 3, 10000
*NGEN,nset=A611
200001,200073,1
*NGEN,nset=A612
200601,200673,1
*NGEN,nset=B611
230001,230073,1
*NGEN,nset=B612
230601,230673,1
*NFILL, NSET=A61
A611, A612, 6, 100
*NFILL, NSET=B61
B611, B612, 6, 100
*NFILL, NSET=nset-concrete61
A61, B61, 3, 10000
*NGEN,nset=A621
200701,200773,1
*NGEN,nset=A622
201301,201373,1
*NGEN,nset=B621
230701,230773,1
*NGEN,nset=B622
231301,231373,1
*NFILL, NSET=A62
A621, A622, 6, 100
*NFILL, NSET=B62
B621, B622, 6, 100
*NFILL, NSET=nset-concrete62
A62, B62, 3, 10000
*NGEN,nset=A631
201401,201473,1
*NGEN,nset=A632
202001,202073,1
*NGEN,nset=B631
231401,231473,1
*NGEN,nset=B632
232001,232073,1
*NFILL, NSET=A63
A631, A632, 6, 100
*NFILL, NSET=B63
B631, B632, 6, 100
*NFILL, NSET=nset-concrete63
A63, B63, 3, 10000
*ELEMENT, TYPE=C3D8R
1,1,2,102,101,10001,10002,10102,10101
433,701,702,802,801,10701,10702,10802,10801
865,1401,1402,1502,1501,11401,11402,11502,11501
3889,40001,40002,40102,40101,50001,50002,50102,50101
4321,40701,40702,40802,40801,50701,50702,50802,50801
4753,41401,41402,41502,41501,51401,51402,51502,51501
7777,80001,80002,80102,80101,90001,90002,90102,90101
8209,80701,80702,80802,80801,90701,90702,90802,90801
8641,81401,81402,81502,81501,91401,91402,91502,91501
11665,120001,120002,120102,120101,130001,130002,130102,130101
12097,120701,120702,120802,120801,130701,130702,130802,130801
12529,121401,121402,121502,121501,131401,131402,131502,131501
15553,160001,160002,160102,160101,170001,170002,170102,170101
15985,160701,160702,160802,160801,170701,170702,170802,170801
16417,161401,161402,161502,161501,171401,171402,171502,171501
19441,200001,200002,200102,200101,210001,210002,210102,210101
19873,200701,200702,200802,200801,210701,210702,210802,210801
20305,201401,201402,201502,201501,211401,211402,211502,211501
*ELGEN,ELSET=eset-concrete11
1,72,1,1,6,100,72,3,10000,1296
*ELGEN,ELSET=eset-concrete12
433,72,1,1,6,100,72,3,10000,1296
*ELGEN,ELSET=eset-concrete13 
865,72,1,1,6,100,72,3,10000,1296
*ELGEN,ELSET=eset-concrete21 
3889,72,1,1,6,100,72,3,10000,1296
*ELGEN,ELSET=eset-concrete22 
4321,72,1,1,6,100,72,3,10000,1296
*ELGEN,ELSET=eset-concrete23
4753,72,1,1,6,100,72,3,10000,1296
*ELGEN,ELSET=eset-concrete31
7777,72,1,1,6,100,72,3,10000,1296
*ELGEN,ELSET=eset-concrete32
8209,72,1,1,6,100,72,3,10000,1296
*ELGEN,ELSET=eset-concrete33
8641,72,1,1,6,100,72,3,10000,1296
*ELGEN,ELSET=eset-concrete41
11665,72,1,1,6,100,72,3,10000,1296
*ELGEN,ELSET=eset-concrete42
12097,72,1,1,6,100,72,3,10000,1296
*ELGEN,ELSET=eset-concrete43
12529,72,1,1,6,100,72,3,10000,1296
*ELGEN,ELSET=eset-concrete51
15553,72,1,1,6,100,72,3,10000,1296
*ELGEN,ELSET=eset-concrete52
15985,72,1,1,6,100,72,3,10000,1296
*ELGEN,ELSET=eset-concrete53
16417,72,1,1,6,100,72,3,10000,1296
*ELGEN,ELSET=eset-concrete61
19441,72,1,1,6,100,72,3,10000,1296
*ELGEN,ELSET=eset-concrete62
19873,72,1,1,6,100,72,3,10000,1296
*ELGEN,ELSET=eset-concrete63
20305,72,1,1,6,100,72,3,10000,1296
*Element, TYPE=COH3D8
30001,30001,30002,30102,30101,40001,40002,40102,40101
30433,30701,30702,30802,30801,40701,40702,40802,40801
30865,31401,31402,31502,31501,41401,41402,41502,41501
31297,70001,70002,70102,70101,80001,80002,80102,80101
31729,70701,70702,70802,70801,80701,80702,80802,80801
32161,71401,71402,71502,71501,81401,81402,81502,81501
32593,110001,110002,110102,110101,120001,120002,120102,120101
33025,110701,110702,110802,110801,120701,120702,120802,120801
33457,111401,111402,111502,111501,121401,121402,121502,121501
33889,150001,150002,150102,150101,160001,160002,160102,160101
34321,150701,150702,150802,150801,160701,160702,160802,160801
34753,151401,151402,151502,151501,161401,161402,161502,161501
35185,190001,190002,190102,190101,200001,200002,200102,200101
35617,190701,190702,190802,190801,200701,200702,200802,200801
36049,191401,191402,191502,191501,201401,201402,201502,201501
*ELGEN,ELSET=COHESIVE11-21
30001,72,1,1,6,100,72,1,10000,432
*ELGEN,ELSET=COHESIVE12-22
30433,72,1,1,6,100,72,1,10000,432
*ELGEN,ELSET=COHESIVE13-23
30865,72,1,1,6,100,72,1,10000,432
*ELGEN,ELSET=COHESIVE21-31
31297,72,1,1,6,100,72,1,10000,432
*ELGEN,ELSET=COHESIVE22-32
31729,72,1,1,6,100,72,1,10000,432
*ELGEN,ELSET=COHESIVE23-33
32161,72,1,1,6,100,72,1,10000,432
*ELGEN,ELSET=COHESIVE31-41
32593,72,1,1,6,100,72,1,10000,432
*ELGEN,ELSET=COHESIVE32-42
33025,72,1,1,6,100,72,1,10000,432
*ELGEN,ELSET=COHESIVE33-43
33457,72,1,1,6,100,72,1,10000,432
*ELGEN,ELSET=COHESIVE41-51
33889,72,1,1,6,100,72,1,10000,432
*ELGEN,ELSET=COHESIVE42-52
34321,72,1,1,6,100,72,1,10000,432
*ELGEN,ELSET=COHESIVE43-53
34753,72,1,1,6,100,72,1,10000,432
*ELGEN,ELSET=COHESIVE51-61
35185,72,1,1,6,100,72,1,10000,432
*ELGEN,ELSET=COHESIVE52-62
35617,72,1,1,6,100,72,1,10000,432
*ELGEN,ELSET=COHESIVE53-63
36049,72,1,1,6,100,72,1,10000,432
*ELSET, ELSET=eset-COHESIVEXY1-2
COHESIVE11-21,COHESIVE12-22,COHESIVE13-23
*ELSET, ELSET=eset-COHESIVEXY2-3
COHESIVE21-31,COHESIVE22-32,COHESIVE23-33
*ELSET, ELSET=eset-COHESIVEXY3-4
COHESIVE31-41,COHESIVE32-42,COHESIVE33-43
*ELSET, ELSET=eset-COHESIVEXY4-5
COHESIVE41-51,COHESIVE42-52,COHESIVE43-53
*ELSET, ELSET=eset-COHESIVEXY5-6
COHESIVE51-61,COHESIVE52-62,COHESIVE53-63
*Element, TYPE=COH3D8
40001 ,601,602,702,701,10601,10602,10702,10701
40217 ,1301,1302,1402,1401,11301,11302,11402,11401
40433 ,40601,40602,40702,40701,50601,50602,50702,50701
40649 ,41301,41302,41402,41401,51301,51302,51402,51401
40865 ,80601,80602,80702,80701,90601,90602,90702,90701
41081 ,81301,81302,81402,81401,91301,91302,91402,91401
41297 ,120601,120602,120702,120701,130601,130602,130702,130701
41513 ,121301,121302,121402,121401,131301,131302,131402,131401
41729 ,160601,160602,160702,160701,170601,170602,170702,170701
41945 ,161301,161302,161402,161401,171301,171302,171402,171401
42161 ,200601,200602,200702,200701,210601,210602,210702,210701
42377 ,201301,201302,201402,201401,211301,211302,211402,211401
*ELGEN,ELSET=COHESIVE11-12
40001,72,1,1,3,10000,72,1,100,216
*ELGEN,ELSET=COHESIVE12-13
40217,72,1,1,3,10000,72,1,100,216
*ELGEN,ELSET=COHESIVE21-22
40433,72,1,1,3,10000,72,1,100,216
*ELGEN,ELSET=COHESIVE22-23
40649,72,1,1,3,10000,72,1,100,216
*ELGEN,ELSET=COHESIVE31-32
40865,72,1,1,3,10000,72,1,100,216
*ELGEN,ELSET=COHESIVE32-33
41081,72,1,1,3,10000,72,1,100,216
*ELGEN,ELSET=COHESIVE41-42
41297,72,1,1,3,10000,72,1,100,216
*ELGEN,ELSET=COHESIVE42-43
41513,72,1,1,3,10000,72,1,100,216
*ELGEN,ELSET=COHESIVE51-52
41729,72,1,1,3,10000,72,1,100,216
*ELGEN,ELSET=COHESIVE52-53
41945,72,1,1,3,10000,72,1,100,216
*ELGEN,ELSET=COHESIVE61-62
42161,72,1,1,3,10000,72,1,100,216
*ELGEN,ELSET=COHESIVE62-63
42377,72,1,1,3,10000,72,1,100,216
*ELSET, ELSET=eset-COHESIVEXZ1-2
COHESIVE11-12,COHESIVE21-22,COHESIVE31-32,COHESIVE41-42,COHESIVE51-52,COHESIVE61-62
*ELSET, ELSET=eset-COHESIVEXZ2-3
COHESIVE12-13,COHESIVE22-23,COHESIVE32-33,COHESIVE42-43,COHESIVE52-53,COHESIVE62-63
*ELSET, ELSET=eset-COHESIVEXY
eset-COHESIVEXY1-2,eset-COHESIVEXY2-3,eset-COHESIVEXY3-4,eset-COHESIVEXY4-5,eset-COHESIVEXY5-6
*ELSET, ELSET=eset-COHESIVEXZ
eset-COHESIVEXZ1-2,eset-COHESIVEXZ2-3
*ELSET, ELSET=eset-cohesiveXYZ
eset-cohesiveXY,eset-cohesiveXZ
*ELSET, ELSET=eset-concretezb
eset-concrete11,eset-concrete12,eset-concrete13
*ELSET, ELSET=eset-concretezu
eset-concrete61,eset-concrete62,eset-concrete63
*ELSET, ELSET=eset-concrete
eset-concrete11,eset-concrete12,eset-concrete13,eset-concrete21,eset-concrete22,eset-concrete23,
eset-concrete31,eset-concrete32,eset-concrete33,eset-concrete41,eset-concrete42,eset-concrete43,
eset-concrete51,eset-concrete52,eset-concrete53,eset-concrete61,eset-concrete62,eset-concrete63
*COHESIVE SECTION, ELSET=eset-cohesiveXY, MATERIAL=ADHESIVE1, RESPONSE=TRACTION SEPARATION
*COHESIVE SECTION, ELSET=eset-cohesiveXZ, MATERIAL=ADHESIVE5, RESPONSE=TRACTION SEPARATION, STACK DIRECTION=2
*Solid Section, elset=eset-concrete, material=concrete
*End Part
*Part, name=zhizuo
*Node
1,0,0,0
3,10,0,0
181,0,90,0
183,10,90,0
401,0,0,10
403,10,0,10
581,0,90,10
583,10,90,10
*NGEN,nset=BC
1,3,1
*NGEN,nset=UC
181,183,1
*NGEN,nset=BD
401,403,1
*NGEN,nset=UD
581,583,1
*NFILL, NSET=C
BC, UC, 18, 10
*NFILL, NSET=D
BD, UD, 18, 10
*NFILL, NSET=nset-zhizuo
C, D, 2, 200
*ELEMENT, TYPE=C3D8R
1,1,2,12,11,201,202,212,211
*ELGEN,ELSET=eset-zhizuo
1,2,1,1,18,10,2,2,200,36  
** Section: gang
*Solid Section, elset=eset-zhizuo, material=gang
*End Part
*Assembly, name=Assembly1
*Instance, name=concrete1, part=concrete
*End Instance
*Instance, name=zhizuos1, part=zhizuo
          130,0,90
*End Instance
*Instance, name=zhizuos2, part=zhizuo
          220,0,90
*End Instance  
*Instance, name=zhizuox1, part=zhizuo
          40,0,-10
*End Instance
*Instance, name=zhizuox2, part=zhizuo
          310,0,-10
*End Instance
*Node
      1,135,45,110
      2,225,45,110
      3,45,45,-20
      4,315,45,-20      
*Nset, nset=Set-RP1
 1,
*Nset, nset=Set-RP2
 2, 
*Nset, nset=Set-RP3
 3,
*Nset, nset=Set-RP4
 4, 
*ELSET, ELSET=econcretezu
    concrete1.eset-concretezu
*ELSET, ELSET=econcretezb
    concrete1.eset-concretezb    
*ELSET, ELSET=econcrete
    concrete1.eset-concrete
*ELSET, ELSET=ezhizuos1
    zhizuos1.eset-zhizuo
*ELSET, ELSET=ezhizuos2
    zhizuos2.eset-zhizuo
*ELSET, ELSET=ezhizuox1
    zhizuox1.eset-zhizuo
*ELSET, ELSET=ezhizuox2
    zhizuox2.eset-zhizuo
*NSET, NSET=Bzhizuo1
    zhizuox1.C
*NSET, NSET=Bzhizuo2
    zhizuox2.C                    
*Surface, type=ELEMENT, name=SFconcretezb
econcretezb,S1
*Surface, type=ELEMENT, name=SFconcretezu
econcretezu,S2
*Surface, type=ELEMENT, name=SFzhizuos11
ezhizuos1,S1
*Surface, type=ELEMENT, name=SFzhizuos12
ezhizuos1,S2
*Surface, type=ELEMENT, name=SFzhizuos21
ezhizuos2,S1
*Surface, type=ELEMENT, name=SFzhizuos22
ezhizuos2,S2
*Surface, type=ELEMENT, name=SFzhizuox11
ezhizuox1,S1
*Surface, type=ELEMENT, name=SFzhizuox12
ezhizuox1,S2
*Surface, type=ELEMENT, name=SFzhizuox21
ezhizuox2,S1
*Surface, type=ELEMENT, name=SFzhizuox22
ezhizuox2,S2
*Tie, name=Constraints1, adjust=yes
SFzhizuos11,SFconcretezu
*Tie, name=Constraints2, adjust=yes
SFzhizuos21,SFconcretezu
*Tie, name=Constraintx1, adjust=yes
SFzhizuox12,SFconcretezb
*Tie, name=Constraintx2, adjust=yes
SFzhizuox22,SFconcretezb
** Constraint: ConstraintRs1
*Rigid Body, ref node=Set-RP1, elset=zhizuos1.eset-zhizuo
** Constraint: ConstraintRs2
*Rigid Body, ref node=Set-RP2, elset=zhizuos2.eset-zhizuo
** Constraint: ConstraintRx1
*Rigid Body, ref node=Set-RP3, elset=zhizuox1.eset-zhizuo
** Constraint: ConstraintRx2
*Rigid Body, ref node=Set-RP4, elset=zhizuox2.eset-zhizuo
*End Assembly
*MATERIAL,NAME=ADHESIVE1
*ELASTIC,TYPE=TRACTION
**<Emod>,<Emod>,<Emod>
12533,47,47
*DENSITY
1.75e-9
*Damage Initiation, criterion=QUADS
1.88, 0.94, 0.94
*Damage Evolution, type=ENERGY, mixed mode behavior=POWER LAW, power=2.
0.0633, 0.0376, 0.0376
*MATERIAL,NAME=ADHESIVE2
*ELASTIC,TYPE=TRACTION
**<Emod>,<Emod>,<Emod>
6266.67,23.5,23.5
*DENSITY
1.75e-9
*Damage Initiation, criterion=QUADS
0.94, 0.47, 0.47
*Damage Evolution, type=ENERGY, mixed mode behavior=POWER LAW, power=2.
0.0429, 0.0188, 0.0188
*MATERIAL,NAME=ADHESIVE3
*ELASTIC,TYPE=TRACTION
**<Emod>,<Emod>,<Emod>
3133.33,11.75,11.75
*DENSITY
1.75e-9
*Damage Initiation, criterion=QUADS
0.47, 0.235, 0.235
*Damage Evolution, type=ENERGY, mixed mode behavior=POWER LAW, power=2.
0.0346, 0.0094, 0.0094
*MATERIAL,NAME=ADHESIVE4
*ELASTIC,TYPE=TRACTION
**<Emod>,<Emod>,<Emod>
25066.67,94,94
*DENSITY
1.75e-9
*Damage Initiation, criterion=QUADS
3.76, 1.88, 1.88
*Damage Evolution, type=ENERGY, mixed mode behavior=POWER LAW, power=2.
0.1148, 0.0752, 0.0752
*MATERIAL,NAME=ADHESIVE5
*ELASTIC,TYPE=TRACTION
**<Emod>,<Emod>,<Emod>
50133.33,188,188
*DENSITY
1.75e-9
*Damage Initiation, criterion=QUADS
7.52, 3.76, 3.76
*Damage Evolution, type=ENERGY, mixed mode behavior=POWER LAW, power=2.
0.2208, 0.1504, 0.1504
*Material, name=concrete
*Density
 2.5e-09,
*Elastic
22958.7788, 0.2
*Concrete Damaged Plasticity
35.,     0.1,    1.16, 0.66667,  0.0005
*Concrete Compression Hardening
9.983,0
11.585,2.905E-05
13.551,5.101E-05
15.245,7.907E-05
16.823,1.161E-04
18.252,1.629E-04
19.511,2.199E-04
20.588,2.871E-04
21.482,3.642E-04
22.195,4.505E-04
22.741,5.452E-04
23.134,6.475E-04
23.389,7.564E-04
23.525,8.708E-04
23.559,9.899E-04
23.507,1.113E-03
23.384,1.239E-03
23.202,1.367E-03
22.974,1.498E-03
22.709,1.629E-03
** ... 74 like lines cut
*Concrete Tension Stiffening, type=DISPLACEMENT
1.879898627,0
1.872360155,0.0001
1.864851733,0.0002
1.857373298,0.0003
1.849924788,0.0004
1.842506138,0.0005
1.835117285,0.0006
1.827758165,0.0007
1.820428714,0.0008
1.784224186,0.0013
1.748751437,0.0018
1.714001959,0.0023
1.679967038,0.0028
1.646637768,0.0033
1.614005075,0.0038
1.582059732,0.0043
1.550792376,0.0048
1.520193522,0.0053
1.490253582,0.0058
1.460962877,0.0063
** ... 49 like lines cut
*Concrete Compression Damage
0.000,0
0.000,2.905E-05
0.000,5.101E-05
0.000,7.907E-05
0.000,1.161E-04
0.000,1.629E-04
0.000,2.199E-04
0.000,2.871E-04
0.000,3.642E-04
0.000,4.505E-04
0.000,5.452E-04
0.000,6.475E-04
0.000,7.564E-04
0.000,8.708E-04
0.000,9.899E-04
0.002,1.113E-03
0.007,1.239E-03
0.015,1.367E-03
0.025,1.498E-03
0.036,1.629E-03
** ... 74 like lines cut
*Concrete Tension Damage, type=DISPLACEMENT
0,0
0.002884279,0.0001
0.005761898,0.0002
0.00863287,0.0003
0.011497206,0.0004
0.014354918,0.0005
0.017206016,0.0006
0.020050513,0.0007
0.02288842,0.0008
0.036979504,0.0013
0.050907549,0.0018
0.064673974,0.0023
0.07828019,0.0028
0.091727599,0.0033
0.105017595,0.0038
0.118151566,0.0043
0.131130887,0.0048
0.14395693,0.0053
0.156631056,0.0058
0.169154618,0.0063
** ... 49 like lines cut
*Material, name=gang
*Density
 7.8e-09,
*Elastic
 2.1e+12, 0.3  
** BOUNDARY CONDITIONS
** Name: BC-1 Type: Displacement/Rotation
*Boundary
Bzhizuo1, 1, 1
Bzhizuo1, 3, 3
Bzhizuo1, 5, 5
** Name: BC-2 Type: Displacement/Rotation
*Boundary
Bzhizuo2, 3, 3
Bzhizuo2, 5, 5
*AMPLITUDE,NAME=RA
0,0,1,1
** STEP: Step-1
*Step, name=Step-1, nlgeom=YES, inc=10000
*Static, stabilize, factor=0.0002, allsdtol=0, continue=NO
0.05, 1., 1e-05, 0.1 
** BOUNDARY CONDITIONS
** Name: BC-3 Type: Displacement/Rotation
*Boundary, amplitude=RA
Set-RP1, 3, 3, -0.5
** Name: BC-4 Type: Displacement/Rotation
*Boundary, amplitude=RA
Set-RP2, 3, 3, -0.5
** OUTPUT REQUESTS 
*Restart, write, frequency=0 
** FIELD OUTPUT: F-Output-1 
*Output, field
*Node Output
CF, RF, U
*Element Output, directions=YES
DAMAGEC, DAMAGET, LE, PE, PEEQ, PEMAG, S
*Contact Output
CDISP, CSTRESS 
** FIELD OUTPUT
*Element Output, directions=YES
DMICRT, SDEG, STATUS, MMIXDMI, MMIXDME
*Contact Output
CSDMG, CSQUADSCRT, CSQUADUCRT  
** HISTORY OUTPUT: H-Output-1 
*Output, history, variable=PRESELECT
*End Step